# File generated by Flopy version 3.4.2 on 10/25/2023 at 17:08:52.
BEGIN options
  auxiliary  CONCENTRATION
  AUTO_FLOW_REDUCE      -0.10000000
#  AUTO_FLOW_REDUCE_CSV  FILEOUT  flow.wel_reduced.csv
END options
BEGIN dimensions
  MAXBOUND  600
END dimensions

BEGIN period 1
	 OPEN/CLOSE flow.wel_stress_period_data_scenario.txt
END period 1
