# File generated by Flopy version 3.4.2 on 10/25/2023 at 17:08:51.
BEGIN options
  TIME_UNITS  days
END options

BEGIN dimensions
  NPER  1
END dimensions

BEGIN perioddata
   36500.000000     3650     1.00000000
END perioddata

