# File generated by Flopy version 3.4.2 on 10/25/2023 at 17:08:51.
BEGIN options
  SAVE_FLOWS
END options

BEGIN packages
  DIS6  flow.dis  dis
  NPF6  flow.npf  npf
  STO6  flow.sto  sto
  IC6  flow.ic  ic
  RCH6  flow.rch  rch-1
  BUY6  flow.buy  buy
  GHB6  flow.ghb  ghb-1
  WEL6  flow.wel  wel-1
  OBS6 flow.obs obs
#  OC6  flow.oc  oc
END packages

