# File generated by Flopy version 3.4.2 on 10/26/2023 at 06:03:35.
BEGIN options
END options

BEGIN griddata
  porosity
    OPEN/CLOSE  'trans.mst_porosity.txt'  FACTOR  1.0
END griddata

