# File generated by Flopy version 3.4.2 on 10/25/2023 at 17:08:52.
BEGIN options
END options

BEGIN packages
  DIS6  trans.dis  dis
  MST6  trans.mst  mst
  IC6  trans.ic  ic
  ADV6  trans.adv  adv
  DSP6  trans.dsp  dsp
  SSM6  trans.ssm  ssm
  OBS6  trans.obs  obs_0
#  OC6  trans.oc  oc
END packages

