# File generated by Flopy version 3.4.2 on 10/26/2023 at 06:03:35.
BEGIN options
END options

BEGIN sources
  GHB-1  AUX  CONCENTRATION
  WEL-1  AUX  CONCENTRATION
  RCH-1  AUX  CONCENTRATION
END sources

