# File generated by Flopy version 3.4.2 on 10/26/2023 at 06:03:34.
BEGIN options
  REWET  WETFCT       0.50000000  IWETIT  5  IHDWET  0
  SAVE_SPECIFIC_DISCHARGE
#  alternative_cell_averaging AMT-LMK
END options

BEGIN griddata
  icelltype
    OPEN/CLOSE  'flow.npf_icelltype.txt'  FACTOR  1
  k
    OPEN/CLOSE  'flow.npf_hk.txt'  FACTOR  1.0
  k33
    OPEN/CLOSE  'flow.npf_vk.txt'  FACTOR  1.0
  wetdry
    OPEN/CLOSE  'flow.npf_wetdry.txt'  FACTOR  1.0
END griddata

