# File generated by Flopy version 3.4.2 on 10/26/2023 at 06:03:34.
BEGIN options
  LENGTH_UNITS  m
END options

BEGIN dimensions
  NLAY  90
  NROW  1
  NCOL  4000
END dimensions

BEGIN griddata
  delr
    OPEN/CLOSE  'flow.dis_delr.txt'  FACTOR  1.0
  delc
    OPEN/CLOSE  'flow.dis_delc.txt'  FACTOR  1.0
  top
    OPEN/CLOSE  'flow.dis_top.txt'  FACTOR  1.0
  botm  LAYERED
    OPEN/CLOSE  'flow.dis_botm_layer1.txt'  FACTOR  1.0
    OPEN/CLOSE  'flow.dis_botm_layer2.txt'  FACTOR  1.0
    OPEN/CLOSE  'flow.dis_botm_layer3.txt'  FACTOR  1.0
    OPEN/CLOSE  'flow.dis_botm_layer4.txt'  FACTOR  1.0
    OPEN/CLOSE  'flow.dis_botm_layer5.txt'  FACTOR  1.0
    OPEN/CLOSE  'flow.dis_botm_layer6.txt'  FACTOR  1.0
    OPEN/CLOSE  'flow.dis_botm_layer7.txt'  FACTOR  1.0
    OPEN/CLOSE  'flow.dis_botm_layer8.txt'  FACTOR  1.0
    OPEN/CLOSE  'flow.dis_botm_layer9.txt'  FACTOR  1.0
    OPEN/CLOSE  'flow.dis_botm_layer10.txt'  FACTOR  1.0
    OPEN/CLOSE  'flow.dis_botm_layer11.txt'  FACTOR  1.0
    OPEN/CLOSE  'flow.dis_botm_layer12.txt'  FACTOR  1.0
    OPEN/CLOSE  'flow.dis_botm_layer13.txt'  FACTOR  1.0
    OPEN/CLOSE  'flow.dis_botm_layer14.txt'  FACTOR  1.0
    OPEN/CLOSE  'flow.dis_botm_layer15.txt'  FACTOR  1.0
    OPEN/CLOSE  'flow.dis_botm_layer16.txt'  FACTOR  1.0
    OPEN/CLOSE  'flow.dis_botm_layer17.txt'  FACTOR  1.0
    OPEN/CLOSE  'flow.dis_botm_layer18.txt'  FACTOR  1.0
    OPEN/CLOSE  'flow.dis_botm_layer19.txt'  FACTOR  1.0
    OPEN/CLOSE  'flow.dis_botm_layer20.txt'  FACTOR  1.0
    OPEN/CLOSE  'flow.dis_botm_layer21.txt'  FACTOR  1.0
    OPEN/CLOSE  'flow.dis_botm_layer22.txt'  FACTOR  1.0
    OPEN/CLOSE  'flow.dis_botm_layer23.txt'  FACTOR  1.0
    OPEN/CLOSE  'flow.dis_botm_layer24.txt'  FACTOR  1.0
    OPEN/CLOSE  'flow.dis_botm_layer25.txt'  FACTOR  1.0
    OPEN/CLOSE  'flow.dis_botm_layer26.txt'  FACTOR  1.0
    OPEN/CLOSE  'flow.dis_botm_layer27.txt'  FACTOR  1.0
    OPEN/CLOSE  'flow.dis_botm_layer28.txt'  FACTOR  1.0
    OPEN/CLOSE  'flow.dis_botm_layer29.txt'  FACTOR  1.0
    OPEN/CLOSE  'flow.dis_botm_layer30.txt'  FACTOR  1.0
    OPEN/CLOSE  'flow.dis_botm_layer31.txt'  FACTOR  1.0
    OPEN/CLOSE  'flow.dis_botm_layer32.txt'  FACTOR  1.0
    OPEN/CLOSE  'flow.dis_botm_layer33.txt'  FACTOR  1.0
    OPEN/CLOSE  'flow.dis_botm_layer34.txt'  FACTOR  1.0
    OPEN/CLOSE  'flow.dis_botm_layer35.txt'  FACTOR  1.0
    OPEN/CLOSE  'flow.dis_botm_layer36.txt'  FACTOR  1.0
    OPEN/CLOSE  'flow.dis_botm_layer37.txt'  FACTOR  1.0
    OPEN/CLOSE  'flow.dis_botm_layer38.txt'  FACTOR  1.0
    OPEN/CLOSE  'flow.dis_botm_layer39.txt'  FACTOR  1.0
    OPEN/CLOSE  'flow.dis_botm_layer40.txt'  FACTOR  1.0
    OPEN/CLOSE  'flow.dis_botm_layer41.txt'  FACTOR  1.0
    OPEN/CLOSE  'flow.dis_botm_layer42.txt'  FACTOR  1.0
    OPEN/CLOSE  'flow.dis_botm_layer43.txt'  FACTOR  1.0
    OPEN/CLOSE  'flow.dis_botm_layer44.txt'  FACTOR  1.0
    OPEN/CLOSE  'flow.dis_botm_layer45.txt'  FACTOR  1.0
    OPEN/CLOSE  'flow.dis_botm_layer46.txt'  FACTOR  1.0
    OPEN/CLOSE  'flow.dis_botm_layer47.txt'  FACTOR  1.0
    OPEN/CLOSE  'flow.dis_botm_layer48.txt'  FACTOR  1.0
    OPEN/CLOSE  'flow.dis_botm_layer49.txt'  FACTOR  1.0
    OPEN/CLOSE  'flow.dis_botm_layer50.txt'  FACTOR  1.0
    OPEN/CLOSE  'flow.dis_botm_layer51.txt'  FACTOR  1.0
    OPEN/CLOSE  'flow.dis_botm_layer52.txt'  FACTOR  1.0
    OPEN/CLOSE  'flow.dis_botm_layer53.txt'  FACTOR  1.0
    OPEN/CLOSE  'flow.dis_botm_layer54.txt'  FACTOR  1.0
    OPEN/CLOSE  'flow.dis_botm_layer55.txt'  FACTOR  1.0
    OPEN/CLOSE  'flow.dis_botm_layer56.txt'  FACTOR  1.0
    OPEN/CLOSE  'flow.dis_botm_layer57.txt'  FACTOR  1.0
    OPEN/CLOSE  'flow.dis_botm_layer58.txt'  FACTOR  1.0
    OPEN/CLOSE  'flow.dis_botm_layer59.txt'  FACTOR  1.0
    OPEN/CLOSE  'flow.dis_botm_layer60.txt'  FACTOR  1.0
    OPEN/CLOSE  'flow.dis_botm_layer61.txt'  FACTOR  1.0
    OPEN/CLOSE  'flow.dis_botm_layer62.txt'  FACTOR  1.0
    OPEN/CLOSE  'flow.dis_botm_layer63.txt'  FACTOR  1.0
    OPEN/CLOSE  'flow.dis_botm_layer64.txt'  FACTOR  1.0
    OPEN/CLOSE  'flow.dis_botm_layer65.txt'  FACTOR  1.0
    OPEN/CLOSE  'flow.dis_botm_layer66.txt'  FACTOR  1.0
    OPEN/CLOSE  'flow.dis_botm_layer67.txt'  FACTOR  1.0
    OPEN/CLOSE  'flow.dis_botm_layer68.txt'  FACTOR  1.0
    OPEN/CLOSE  'flow.dis_botm_layer69.txt'  FACTOR  1.0
    OPEN/CLOSE  'flow.dis_botm_layer70.txt'  FACTOR  1.0
    OPEN/CLOSE  'flow.dis_botm_layer71.txt'  FACTOR  1.0
    OPEN/CLOSE  'flow.dis_botm_layer72.txt'  FACTOR  1.0
    OPEN/CLOSE  'flow.dis_botm_layer73.txt'  FACTOR  1.0
    OPEN/CLOSE  'flow.dis_botm_layer74.txt'  FACTOR  1.0
    OPEN/CLOSE  'flow.dis_botm_layer75.txt'  FACTOR  1.0
    OPEN/CLOSE  'flow.dis_botm_layer76.txt'  FACTOR  1.0
    OPEN/CLOSE  'flow.dis_botm_layer77.txt'  FACTOR  1.0
    OPEN/CLOSE  'flow.dis_botm_layer78.txt'  FACTOR  1.0
    OPEN/CLOSE  'flow.dis_botm_layer79.txt'  FACTOR  1.0
    OPEN/CLOSE  'flow.dis_botm_layer80.txt'  FACTOR  1.0
    OPEN/CLOSE  'flow.dis_botm_layer81.txt'  FACTOR  1.0
    OPEN/CLOSE  'flow.dis_botm_layer82.txt'  FACTOR  1.0
    OPEN/CLOSE  'flow.dis_botm_layer83.txt'  FACTOR  1.0
    OPEN/CLOSE  'flow.dis_botm_layer84.txt'  FACTOR  1.0
    OPEN/CLOSE  'flow.dis_botm_layer85.txt'  FACTOR  1.0
    OPEN/CLOSE  'flow.dis_botm_layer86.txt'  FACTOR  1.0
    OPEN/CLOSE  'flow.dis_botm_layer87.txt'  FACTOR  1.0
    OPEN/CLOSE  'flow.dis_botm_layer88.txt'  FACTOR  1.0
    OPEN/CLOSE  'flow.dis_botm_layer89.txt'  FACTOR  1.0
    OPEN/CLOSE  'flow.dis_botm_layer90.txt'  FACTOR  1.0
END griddata

