# File generated by Flopy version 3.4.2 on 10/26/2023 at 06:03:34.
BEGIN griddata
  strt
#    OPEN/CLOSE  'flow.ic_strt.txt'  FACTOR  1.0
    OPEN/CLOSE  'flow_ic.hds' FACTOR  1.0 (BINARY)
END griddata

