# File generated by Flopy version 3.4.2 on 10/26/2023 at 06:03:35.
BEGIN options
  BUDGET  FILEOUT  flow.bud
  HEAD  FILEOUT  flow.hds
END options

BEGIN period  1
  SAVE  HEAD  ALL
  SAVE  BUDGET  LAST
  PRINT  BUDGET  ALL
END period  1

