# File generated by Flopy version 3.4.2 on 10/26/2023 at 06:03:35.
BEGIN options
  PRINT_FLOWS
  auxiliary  CONCENTRATION
END options

BEGIN dimensions
	MAXBOUND 90
END dimensions

BEGIN period 1
	 OPEN/CLOSE flow.ghb_stress_period_data_1.txt
END period 1
