# File generated by Flopy version 3.4.2 on 10/26/2023 at 06:03:35.
BEGIN griddata
  strt
#    OPEN/CLOSE  'trans.ic_strt.txt'  FACTOR  1.0
     OPEN/CLOSE  'trans_ic.ucn'  FACTOR  1.0 (BINARY)
END griddata

