# File generated by Flopy version 3.4.2 on 10/26/2023 at 06:03:35.
BEGIN options
  XT3D_OFF
END options

BEGIN griddata
  diffc
    CONSTANT       0.57000000
  alh
    CONSTANT       2.50000000
  ath1
    CONSTANT       0.50000000
END griddata

