BEGIN OPTIONS
	 DIGITS 5
END OPTIONS

BEGIN CONTINUOUS FILEOUT flow.hds.csv
	WL_01	 HEAD	 1 1 2800
	WL_02	 HEAD	 2 1 2800
	WL_03	 HEAD	 3 1 2800
	WL_04	 HEAD	 4 1 2800
	WL_05	 HEAD	 5 1 2800
	WL_06	 HEAD	 6 1 2800
	WL_07	 HEAD	 7 1 2800
	WL_08	 HEAD	 8 1 2800
	WL_09	 HEAD	 9 1 2800
	WL_10	 HEAD	 10 1 2800
	WL_11	 HEAD	 11 1 2800
	WL_12	 HEAD	 12 1 2800
	WL_13	 HEAD	 13 1 2800
	WL_14	 HEAD	 14 1 2800
	WL_15	 HEAD	 15 1 2800
	WL_16	 HEAD	 16 1 2800
	WL_17	 HEAD	 17 1 2800
	WL_18	 HEAD	 18 1 2800
	WL_19	 HEAD	 19 1 2800	
	WL_20	 HEAD	 20 1 2800
	WL_21	 HEAD	 21 1 2800
	WL_22	 HEAD	 22 1 2800
	WL_23	 HEAD	 23 1 2800
	WL_24	 HEAD	 24 1 2800
	WL_25	 HEAD	 25 1 2800
	WL_26	 HEAD	 26 1 2800
	WL_27	 HEAD	 27 1 2800
	WL_28	 HEAD	 28 1 2800
	WL_29	 HEAD	 29 1 2800	
	WL_30	 HEAD	 30 1 2800
	WL_31	 HEAD	 31 1 2800
	WL_32	 HEAD	 32 1 2800
	WL_33	 HEAD	 33 1 2800
	WL_34	 HEAD	 34 1 2800
	WL_35	 HEAD	 35 1 2800
	WL_36	 HEAD	 36 1 2800
	WL_37	 HEAD	 37 1 2800
	WL_38	 HEAD	 38 1 2800
	WL_39	 HEAD	 39 1 2800	
	WL_40	 HEAD	 40 1 2800
	WL_41	 HEAD	 41 1 2800
	WL_42	 HEAD	 42 1 2800
	WL_43	 HEAD	 43 1 2800
	WL_44	 HEAD	 44 1 2800
	WL_45	 HEAD	 45 1 2800
	WL_46	 HEAD	 46 1 2800
	WL_47	 HEAD	 47 1 2800
	WL_48	 HEAD	 48 1 2800
	WL_49	 HEAD	 49 1 2800	
	WL_50	 HEAD	 50 1 2800
	WL_51	 HEAD	 51 1 2800
	WL_52	 HEAD	 52 1 2800
	WL_53	 HEAD	 53 1 2800
	WL_54	 HEAD	 54 1 2800
	WL_55	 HEAD	 55 1 2800
	WL_56	 HEAD	 56 1 2800
	WL_57	 HEAD	 57 1 2800
	WL_58	 HEAD	 58 1 2800
	WL_59	 HEAD	 59 1 2800	
END CONTINUOUS FILEOUT flow.hds.csv