# File generated by Flopy version 3.4.2 on 10/26/2023 at 06:03:34.
BEGIN options
END options

BEGIN griddata
  iconvert
    CONSTANT  1
  ss
    OPEN/CLOSE  'flow.sto.ss.txt'  FACTOR  1.0
  sy
    OPEN/CLOSE  'flow.sto.sy.txt'  FACTOR  1.0
END griddata

BEGIN period  1
  TRANSIENT
END period  1

