# File generated by Flopy version 3.4.2 on 10/26/2023 at 06:03:34.
BEGIN options
  auxiliary  CONCENTRATION
  #PRINT_FLOWS
END options

BEGIN dimensions
	MAXBOUND 4000
END dimensions

BEGIN period 1
	 OPEN/CLOSE flow.rch_stress_period_data_1.txt
END period 1