# File generated by Flopy version 3.4.2 on 10/26/2023 at 06:03:35.
BEGIN options
  BUDGET  FILEOUT  trans.cbc
  CONCENTRATION  FILEOUT  trans.ucn
  CONCENTRATION  PRINT_FORMAT  COLUMNS  10  WIDTH  15  DIGITS  6  GENERAL
END options

BEGIN period  1
  SAVE  CONCENTRATION  ALL
  PRINT  CONCENTRATION  LAST
  PRINT  BUDGET  ALL
END period  1

